
     RDKit          3D

 37 40  0  0  0  0  0  0  0  0999 V2000
   45.3210   19.4680   52.8680 C   0  0  0  0  0  0  0  0  0  0  0  0
   44.6780   19.0610   51.6400 C   0  0  0  0  0  0  0  0  0  0  0  0
   44.2480   20.0000   50.6810 C   0  0  0  0  0  0  0  0  0  0  0  0
   44.4900   21.3220   50.9910 C   0  0  0  0  0  0  0  0  0  0  0  0
   45.0860   21.7150   52.1250 C   0  0  0  0  0  0  0  0  0  0  0  0
   45.5140   20.8510   53.0820 C   0  0  0  0  0  0  0  0  0  0  0  0
   45.7430   18.5670   53.8490 C   0  0  0  0  0  0  0  0  0  0  0  0
   44.6170   23.4360   51.0080 C   0  0  0  0  0  0  0  0  0  0  0  0
   44.4420   24.9350   50.5720 C   0  0  2  0  0  0  0  0  0  0  0  0
   46.5960   18.9460   54.7570 N   0  0  0  0  0  0  0  0  0  0  0  0
   45.2890   17.3480   53.8450 N   0  0  0  0  0  0  0  0  0  0  0  0
   44.2090   22.4040   50.3170 N   0  0  0  0  0  0  0  0  0  0  0  0
   45.1560   23.0190   52.1120 N   0  0  0  0  0  0  0  0  0  0  0  0
   45.0370   25.3510   44.6310 C   0  0  0  0  0  0  0  0  0  0  0  0
   45.7720   26.5360   44.9400 C   0  0  0  0  0  0  0  0  0  0  0  0
   45.9600   26.9660   46.2830 C   0  0  0  0  0  0  0  0  0  0  0  0
   45.3900   26.1690   47.2600 C   0  0  0  0  0  0  0  0  0  0  0  0
   44.6910   25.0430   46.9460 C   0  0  0  0  0  0  0  0  0  0  0  0
   44.4740   24.5750   45.6580 C   0  0  0  0  0  0  0  0  0  0  0  0
   44.7250   25.2740   49.0560 C   0  0  0  0  0  0  0  0  0  0  0  0
   45.3960   26.2880   48.5740 N   0  0  0  0  0  0  0  0  0  0  0  0
   44.3040   24.5340   48.0680 N   0  0  0  0  0  0  0  0  0  0  0  0
   44.5130   18.0140   51.4410 H   0  0  0  0  0  0  0  0  0  0  0  0
   43.7670   19.7060   49.7610 H   0  0  0  0  0  0  0  0  0  0  0  0
   45.9890   21.2280   53.9750 H   0  0  0  0  0  0  0  0  0  0  0  0
   45.0870   25.5420   51.1870 H   0  0  0  0  0  0  0  0  0  0  0  0
   43.4210   25.2200   50.7860 H   0  0  0  0  0  0  0  0  0  0  0  0
   46.9710   19.8790   54.7230 H   0  0  0  0  0  0  0  0  0  0  0  0
   46.8530   18.3990   55.5460 H   0  0  0  0  0  0  0  0  0  0  0  0
   44.6560   17.0430   53.1170 H   0  0  0  0  0  0  0  0  0  0  0  0
   44.9110   25.0480   43.6030 H   0  0  0  0  0  0  0  0  0  0  0  0
   46.1960   27.1190   44.1380 H   0  0  0  0  0  0  0  0  0  0  0  0
   46.5150   27.8590   46.5330 H   0  0  0  0  0  0  0  0  0  0  0  0
   43.9170   23.6720   45.4580 H   0  0  0  0  0  0  0  0  0  0  0  0
   45.8290   27.0080   49.1040 H   0  0  0  0  0  0  0  0  0  0  0  0
   45.5560   16.6880   54.5340 H   0  0  0  0  0  0  0  0  0  0  0  0
   45.5490   23.5840   52.8280 H   0  0  0  0  0  0  0  0  0  0  0  0
  2  1  1  0
  3  2  1  0
  4  3  1  0
  5  4  1  0
  6  5  1  0
  6  1  1  0
  7  1  1  0
  9  8  1  0
 10  7  1  0
 11  7  1  0
 12  4  1  0
 12  8  1  0
 13  5  1  0
 13  8  1  0
 15 14  1  0
 16 15  1  0
 17 16  1  0
 18 17  1  0
 19 18  1  0
 19 14  1  0
 20  9  1  0
 21 17  1  0
 21 20  1  0
 22 18  1  0
 22 20  1  0
 23  2  1  0
 24  3  1  0
 25  6  1  0
  9 26  1  1
 27  9  1  0
 28 10  1  0
 29 10  1  0
 30 11  1  0
 31 14  1  0
 32 15  1  0
 33 16  1  0
 34 19  1  0
 35 21  1  0
 36 11  1  0
 37 13  1  0
M  END
$$$$
