
     RDKit          3D

 73 73  0  0  0  0  0  0  0  0999 V2000
   50.8690   20.6100   27.1570 N   0  0  2  0  0  0  0  0  0  0  0  0
   51.6100   19.8510   28.2070 C   0  0  2  0  0  0  0  0  0  0  0  0
   53.0860   20.2070   28.1870 C   0  0  0  0  0  0  0  0  0  0  0  0
   53.6660   20.4070   27.1310 O   0  0  0  0  0  0  0  0  0  0  0  0
   51.4600   18.3210   28.0200 C   0  0  0  0  0  0  0  0  0  0  0  0
   50.0880   17.7100   28.3800 C   0  0  0  0  0  0  0  0  0  0  0  0
   49.5980   18.0580   29.8260 C   0  0  0  0  0  0  0  0  0  0  0  0
   48.3250   17.4210   30.1800 N   0  0  0  0  0  0  0  0  0  0  0  0
   48.1320   16.1030   30.2180 C   0  0  0  0  0  0  0  0  0  0  0  0
   49.1170   15.2680   29.9350 N   0  0  0  0  0  0  0  0  0  0  0  0
   46.9390   15.6140   30.5030 N   0  0  0  0  0  0  0  0  0  0  0  0
   53.6690   20.2890   29.3720 N   0  0  0  0  0  0  0  0  0  0  0  0
   55.0580   20.6150   29.5840 C   0  0  2  0  0  0  0  0  0  0  0  0
   55.5940   19.4090   30.3930 C   0  0  0  0  0  0  0  0  0  0  0  0
   55.3680   19.2930   31.6080 O   0  0  0  0  0  0  0  0  0  0  0  0
   55.1690   21.9200   30.3950 C   0  0  1  0  0  0  0  0  0  0  0  0
   56.6010   22.4200   30.3940 C   0  0  0  0  0  0  0  0  0  0  0  0
   54.2290   22.9820   29.8400 C   0  0  0  0  0  0  0  0  0  0  0  0
   56.3130   18.5180   29.7170 N   0  0  0  0  0  0  0  0  0  0  0  0
   56.7930   17.3100   30.3630 C   0  0  2  0  0  0  0  0  0  0  0  0
   58.1850   17.2950   30.9450 C   0  0  0  0  0  0  0  0  0  0  0  0
   56.5500   16.1270   29.4520 C   0  0  0  0  0  0  0  0  0  0  0  0
   55.0840   16.1660   29.0310 C   0  0  1  0  0  0  0  0  0  0  0  0
   54.7950   15.3140   27.8110 C   0  0  0  0  0  0  0  0  0  0  0  0
   54.2320   15.7850   30.2140 C   0  0  0  0  0  0  0  0  0  0  0  0
   58.6570   18.4620   31.3750 N   0  0  0  0  0  0  0  0  0  0  0  0
   59.9500   18.5840   32.0340 C   0  0  2  0  0  0  0  0  0  0  0  0
   59.9260   17.5780   33.2260 C   0  0  0  0  0  0  0  0  0  0  0  0
   58.8900   17.3740   33.8940 O   0  0  0  0  0  0  0  0  0  0  0  0
   60.1200   20.0380   32.4960 C   0  0  0  0  0  0  0  0  0  0  0  0
   61.0300   20.1980   33.6810 C   0  0  2  0  0  0  0  0  0  0  0  0
   62.3990   20.0230   33.5480 C   0  0  0  0  0  0  0  0  0  0  0  0
   60.4980   20.4190   34.9480 C   0  0  0  0  0  0  0  0  0  0  0  0
   63.2270   20.0520   34.6550 C   0  0  0  0  0  0  0  0  0  0  0  0
   61.3080   20.4500   36.0610 C   0  0  0  0  0  0  0  0  0  0  0  0
   62.6720   20.2620   35.9190 C   0  0  0  0  0  0  0  0  0  0  0  0
   61.0460   16.9280   33.4910 N   0  0  0  0  0  0  0  0  0  0  0  0
   61.1040   15.9430   34.5730 C   0  0  2  0  0  0  0  0  0  0  0  0
   62.5210   15.9540   35.1270 C   0  0  0  0  0  0  0  0  0  0  0  0
   63.5140   15.7680   34.4230 O   0  0  0  0  0  0  0  0  0  0  0  0
   60.6670   14.5720   34.0260 C   0  0  0  0  0  0  0  0  0  0  0  0
   60.8330   13.3810   34.9590 C   0  0  0  0  0  0  0  0  0  0  0  0
   62.2940   12.9710   35.1210 C   0  0  0  0  0  0  0  0  0  0  0  0
   63.0510   13.2100   34.1510 O   0  0  0  0  0  0  0  0  0  0  0  0
   62.6960   12.4490   36.2020 O   0  0  0  0  0  0  0  0  0  0  0  0
   62.6330   16.2310   36.3980 N   0  0  0  0  0  0  0  0  0  0  0  0
   63.9490   16.2950   36.9880 C   0  0  2  0  0  0  0  0  0  0  0  0
   64.0660   15.3140   38.1270 C   0  0  0  0  0  0  0  0  0  0  0  0
   63.1280   15.1480   38.9200 O   0  0  0  0  0  0  0  0  0  0  0  0
   64.2270   17.7130   37.4750 C   0  0  0  0  0  0  0  0  0  0  0  0
   65.2230   14.6810   38.2110 N   0  0  0  0  0  0  0  0  0  0  0  0
   65.5060   13.7020   39.2450 C   0  0  2  0  0  0  0  0  0  0  0  0
   64.7380   13.8600   40.5620 C   0  0  0  0  0  0  0  0  0  0  0  0
   64.9380   14.8420   41.3310 O   0  0  0  0  0  0  0  0  0  0  0  0
   67.0020   13.6810   39.5010 C   0  0  0  0  0  0  0  0  0  0  0  0
   67.7940   13.0550   38.3560 C   0  0  0  0  0  0  0  0  0  0  0  0
   67.7570   11.5290   38.4250 C   0  0  0  0  0  0  0  0  0  0  0  0
   68.9090   10.9520   37.6030 C   0  0  0  0  0  0  0  0  0  0  0  0
   63.8820   12.9800   40.7800 N   0  0  0  0  0  0  0  0  0  0  0  0
   51.3040   20.2950   26.2660 H   0  0  0  0  0  0  0  0  0  0  0  0
   50.9950   21.6310   27.2830 H   0  0  0  0  0  0  0  0  0  0  0  0
   47.5740   18.0040   30.4180 H   0  0  0  0  0  0  0  0  0  0  0  0
   50.0230   15.6180   29.6960 H   0  0  0  0  0  0  0  0  0  0  0  0
   48.9530   14.2840   29.9550 H   0  0  0  0  0  0  0  0  0  0  0  0
   46.1790   16.2350   30.7100 H   0  0  0  0  0  0  0  0  0  0  0  0
   46.8060   14.6240   30.5470 H   0  0  0  0  0  0  0  0  0  0  0  0
   53.1530   20.1130   30.1910 H   0  0  0  0  0  0  0  0  0  0  0  0
   56.4980   18.6620   28.7610 H   0  0  0  0  0  0  0  0  0  0  0  0
   58.0970   19.2530   31.2680 H   0  0  0  0  0  0  0  0  0  0  0  0
   61.8500   17.0970   32.9480 H   0  0  0  0  0  0  0  0  0  0  0  0
   61.8390   16.3480   36.9600 H   0  0  0  0  0  0  0  0  0  0  0  0
   65.9350   14.8930   37.5850 H   0  0  0  0  0  0  0  0  0  0  0  0
   49.8650   20.3490   27.2080 H   0  0  0  0  0  0  0  0  0  0  0  0
  2  1  1  0
  3  2  1  0
  4  3  1  0
  2  5  1  6
  6  5  1  0
  7  6  1  0
  8  7  1  0
  9  8  1  0
 10  9  1  0
 11  9  1  0
 12  3  1  0
 13 12  1  0
 13 14  1  1
 15 14  1  0
 16 13  1  0
 16 17  1  6
 18 16  1  0
 19 14  1  0
 20 19  1  0
 20 21  1  6
 22 20  1  0
 23 22  1  0
 23 24  1  6
 25 23  1  0
 26 21  1  0
 27 26  1  0
 28 27  1  0
 29 28  1  0
 27 30  1  1
 31 30  1  1
 32 31  1  0
 33 31  1  0
 34 32  1  0
 35 33  1  0
 36 35  1  0
 36 34  1  0
 37 28  1  0
 38 37  1  0
 39 38  1  0
 40 39  1  0
 38 41  1  6
 42 41  1  0
 43 42  1  0
 44 43  1  0
 45 43  1  0
 46 39  1  0
 47 46  1  0
 48 47  1  0
 49 48  1  0
 47 50  1  1
 51 48  1  0
 52 51  1  0
 53 52  1  0
 54 53  1  0
 52 55  1  1
 56 55  1  0
 57 56  1  0
 58 57  1  0
 59 53  1  0
  1 60  1  6
 61  1  1  0
 62  8  1  0
 63 10  1  0
 64 10  1  0
 65 11  1  0
 66 11  1  0
 67 12  1  0
 68 19  1  0
 69 26  1  0
 70 37  1  0
 71 46  1  0
 72 51  1  0
 73  1  1  0
M  CHG  1   1   1
M  END
$$$$
