
     RDKit          3D

 16 16  0  0  0  0  0  0  0  0999 V2000
    5.9310   35.7170   76.1540 N   0  0  0  0  0  0  0  0  0  0  0  0
    5.5500   35.5370   74.7550 C   0  0  1  0  0  0  0  0  0  0  0  0
    6.7890   35.3020   73.8890 C   0  0  0  0  0  0  0  0  0  0  0  0
    7.6850   36.5100   73.7860 C   0  0  0  0  0  0  0  0  0  0  0  0
    7.1570   37.7670   73.4800 C   0  0  0  0  0  0  0  0  0  0  0  0
    9.0510   36.4050   74.0250 C   0  0  0  0  0  0  0  0  0  0  0  0
    7.9690   38.8890   73.4200 C   0  0  0  0  0  0  0  0  0  0  0  0
    9.8740   37.5210   73.9700 C   0  0  0  0  0  0  0  0  0  0  0  0
    9.3240   38.7550   73.6680 C   0  0  0  0  0  0  0  0  0  0  0  0
   10.1310   39.8710   73.6670 O   0  0  0  0  0  0  0  0  0  0  0  0
   11.0740   40.1950   72.4000 S   0  0  2  0  0  0  0  0  0  0  0  0
   11.8120   38.9830   72.0080 O   0  0  0  0  0  0  0  0  0  0  0  0
   12.0060   41.2260   72.7280 O   0  0  0  0  0  0  0  0  0  0  0  0
   10.2570   40.6360   71.3320 O   0  0  0  0  0  0  0  0  0  0  0  0
    4.5550   34.4040   74.5290 C   0  0  0  0  0  0  0  0  0  0  0  0
    3.9540   34.3110   73.4560 O   0  0  0  0  0  0  0  0  0  0  0  0
  2  1  1  1
  3  2  1  0
  4  3  1  0
  5  4  1  0
  6  4  1  0
  7  5  1  0
  8  6  1  0
  9  8  1  0
  9  7  1  0
 10  9  1  0
 11 10  1  0
 11 12  1  6
 13 11  1  0
 14 11  1  0
 15  2  1  0
 16 15  1  0
M  END
$$$$
