
     RDKit          3D

 20 19  0  0  0  0  0  0  0  0999 V2000
  -46.0220   68.5020   -5.6230 C   0  0  0  0  0  0  0  0  0  0  0  0
  -45.1060   69.5650   -6.2620 C   0  0  0  0  0  0  0  0  0  0  0  0
  -45.5950   70.9810   -5.9950 C   0  0  0  0  0  0  0  0  0  0  0  0
  -47.0200   71.1750   -6.4880 C   0  0  0  0  0  0  0  0  0  0  0  0
  -47.4420   72.6290   -6.4110 C   0  0  0  0  0  0  0  0  0  0  0  0
  -48.9410   72.8080   -6.6300 C   0  0  0  0  0  0  0  0  0  0  0  0
  -49.3790   72.4250   -8.0370 C   0  0  0  0  0  0  0  0  0  0  0  0
  -50.8820   72.5900   -8.1830 C   0  0  0  0  0  0  0  0  0  0  0  0
  -51.3490   72.3590   -9.6090 C   0  0  0  0  0  0  0  0  0  0  0  0
  -51.1860   70.9170  -10.0520 C   0  0  0  0  0  0  0  0  0  0  0  0
  -51.5930   70.7720  -11.5080 C   0  0  0  0  0  0  0  0  0  0  0  0
  -51.5140   69.3300  -11.9890 C   0  0  0  0  0  0  0  0  0  0  0  0
  -51.7850   69.2370  -13.4850 C   0  0  0  0  0  0  0  0  0  0  0  0
  -53.0950   69.9120  -13.8510 C   0  0  0  0  0  0  0  0  0  0  0  0
  -53.2910   69.9690  -15.3490 C   0  0  0  0  0  0  0  0  0  0  0  0
  -54.4850   70.8190  -15.7040 C   0  0  0  0  0  0  0  0  0  0  0  0
  -45.5560   66.8670   -6.2820 S   0  0  2  0  0  0  0  0  0  0  0  0
  -44.2830   67.0500   -6.9170 O   0  0  0  0  0  0  0  0  0  0  0  0
  -46.4580   66.4050   -7.2810 O   0  0  0  0  0  0  0  0  0  0  0  0
  -45.3310   65.8730   -5.3050 O   0  0  0  0  0  0  0  0  0  0  0  0
  2  1  1  0
  3  2  1  0
  4  3  1  0
  5  4  1  0
  6  5  1  0
  7  6  1  0
  8  7  1  0
  9  8  1  0
 10  9  1  0
 11 10  1  0
 12 11  1  0
 13 12  1  0
 14 13  1  0
 15 14  1  0
 16 15  1  0
 17  1  1  0
 17 18  1  6
 19 17  1  0
 20 17  1  0
M  END
$$$$
