
     RDKit          3D

 10 11  0  0  0  0  0  0  0  0999 V2000
   26.4350   90.1800   73.3310 N   0  0  0  0  0  0  0  0  0  0  0  0
   25.4470   89.2520   73.2650 C   0  0  0  0  0  0  0  0  0  0  0  0
   24.1760   89.5420   73.4220 N   0  0  0  0  0  0  0  0  0  0  0  0
   23.9780   90.8460   73.6490 C   0  0  0  0  0  0  0  0  0  0  0  0
   24.9260   91.8320   73.7320 C   0  0  0  0  0  0  0  0  0  0  0  0
   26.2860   91.5180   73.5670 C   0  0  0  0  0  0  0  0  0  0  0  0
   27.2920   92.2380   73.5880 O   0  0  0  0  0  0  0  0  0  0  0  0
   24.2930   93.0240   73.9720 N   0  0  0  0  0  0  0  0  0  0  0  0
   22.9680   92.7560   74.0240 C   0  0  0  0  0  0  0  0  0  0  0  0
   22.7370   91.4180   73.8270 N   0  0  0  0  0  0  0  0  0  0  0  0
  2  1  1  0
  3  2  1  0
  4  3  1  0
  5  4  1  0
  6  5  1  0
  6  1  1  0
  7  6  1  0
  8  5  1  0
  9  8  1  0
 10  4  1  0
 10  9  1  0
M  END
$$$$
