
     RDKit          3D

 23 26  0  0  0  0  0  0  0  0999 V2000
   21.2060    9.9350   63.0810 C   0  0  0  0  0  0  0  0  0  0  0  0
   21.2410    9.4460   64.5510 C   0  0  0  0  0  0  0  0  0  0  0  0
   22.0000    8.1250   64.6300 C   0  0  2  0  0  0  0  0  0  0  0  0
   21.7010    7.3010   65.5120 O   0  0  0  0  0  0  0  0  0  0  0  0
   23.1180    7.8720   63.7340 C   0  0  0  0  0  0  0  0  0  0  0  0
   23.4530    8.7270   62.7850 C   0  0  0  0  0  0  0  0  0  0  0  0
   24.6970    8.4430   61.9510 C   0  0  0  0  0  0  0  0  0  0  0  0
   24.4490    8.6370   60.4430 C   0  0  0  0  0  0  0  0  0  0  0  0
   23.7890    9.9970   60.0980 C   0  0  2  0  0  0  0  0  0  0  0  0
   22.4340   10.0950   60.8720 C   0  0  1  0  0  0  0  0  0  0  0  0
   22.6140   10.0230   62.4340 C   0  0  1  0  0  0  0  0  0  0  0  0
   21.6330   11.3540   60.4500 C   0  0  0  0  0  0  0  0  0  0  0  0
   21.4320   11.4340   58.9110 C   0  0  0  0  0  0  0  0  0  0  0  0
   22.7860   11.4040   58.1690 C   0  0  1  0  0  0  0  0  0  0  0  0
   23.4830   10.0600   58.5980 C   0  0  1  0  0  0  0  0  0  0  0  0
   24.6740    9.9180   57.6180 C   0  0  0  0  0  0  0  0  0  0  0  0
   24.0720   10.4500   56.2670 C   0  0  0  0  0  0  0  0  0  0  0  0
   22.7140   11.1490   56.6270 C   0  0  2  0  0  0  0  0  0  0  0  0
   23.6590   12.6770   58.4540 C   0  0  0  0  0  0  0  0  0  0  0  0
   23.4270   11.2460   63.0070 C   0  0  0  0  0  0  0  0  0  0  0  0
   22.3750   12.3880   55.7810 C   0  0  0  0  0  0  0  0  0  0  0  0
   23.2120   12.8760   55.0520 O   0  0  0  0  0  0  0  0  0  0  0  0
   21.0090   12.9760   55.8570 C   0  0  0  0  0  0  0  0  0  0  0  0
  2  1  1  0
  3  2  1  0
  3  4  1  1
  5  3  1  0
  6  5  1  0
  7  6  1  0
  8  7  1  0
  9  8  1  6
 10  9  1  0
 11  1  1  0
 11 10  1  0
 11  6  1  0
 10 12  1  1
 13 12  1  0
 14 13  1  0
 15  9  1  0
 15 14  1  0
 15 16  1  6
 17 16  1  0
 18 17  1  0
 18 14  1  0
 14 19  1  6
 11 20  1  1
 18 21  1  6
 22 21  1  0
 23 21  1  0
M  END
$$$$
