
     RDKit          3D

 19 20  0  0  0  0  0  0  0  0999 V2000
   23.9580    4.3210   13.8760 N   0  0  0  0  0  0  0  0  0  0  0  0
   22.7830    4.6990   13.2060 C   0  0  0  0  0  0  0  0  0  0  0  0
   21.7520    5.3460   13.9220 C   0  0  0  0  0  0  0  0  0  0  0  0
   22.6370    4.4260   11.8220 C   0  0  0  0  0  0  0  0  0  0  0  0
   20.5620    5.7140   13.2600 C   0  0  0  0  0  0  0  0  0  0  0  0
   21.4460    4.7960   11.1610 C   0  0  0  0  0  0  0  0  0  0  0  0
   20.4110    5.4330   11.8830 C   0  0  0  0  0  0  0  0  0  0  0  0
   18.9380    5.8670   11.0820 Cl  0  0  0  0  0  0  0  0  0  0  0  0
   25.2760    5.4300   13.8970 S   0  0  1  0  0  0  0  0  0  0  0  0
   25.0170    6.7010   15.2220 C   0  0  0  0  0  0  0  0  0  0  0  0
   26.4830    4.6860   14.1520 O   0  0  0  0  0  0  0  0  0  0  0  0
   25.3670    6.0870   12.6250 O   0  0  0  0  0  0  0  0  0  0  0  0
   24.7470    6.4870   16.5870 C   0  0  0  0  0  0  0  0  0  0  0  0
   25.0600    8.0870   15.0100 C   0  0  0  0  0  0  0  0  0  0  0  0
   24.6290    7.7630   17.2160 S   0  0  0  0  0  0  0  0  0  0  0  0
   24.6010    5.1790   17.2960 C   0  0  0  0  0  0  0  0  0  0  0  0
   24.8220    8.7390   16.2240 C   0  0  0  0  0  0  0  0  0  0  0  0
   24.7180    4.0210   16.6520 O   0  0  0  0  0  0  0  0  0  0  0  0
   24.3710    5.1850   18.4900 O   0  0  0  0  0  0  0  0  0  0  0  0
  2  1  1  0
  3  2  1  0
  4  2  1  0
  5  3  1  0
  6  4  1  0
  7  6  1  0
  7  5  1  0
  8  7  1  0
  9  1  1  0
 10  9  1  0
  9 11  1  1
 12  9  1  0
 13 10  1  0
 14 10  1  0
 15 13  1  0
 16 13  1  0
 17 14  1  0
 17 15  1  0
 18 16  1  0
 19 16  1  0
M  END
$$$$
