
     RDKit          3D

 16 17  0  0  0  0  0  0  0  0999 V2000
    9.0510    4.5760  -14.4590 C   0  0  2  0  0  0  0  0  0  0  0  0
    8.1470    5.3730  -14.1720 O   0  0  0  0  0  0  0  0  0  0  0  0
    8.6970    3.4980  -15.1320 O   0  0  0  0  0  0  0  0  0  0  0  0
   10.3210    4.4130  -13.7020 C   0  0  0  0  0  0  0  0  0  0  0  0
   10.2150    3.2470  -12.6580 C   0  0  0  0  0  0  0  0  0  0  0  0
   11.4870    2.9720  -11.9640 C   0  0  0  0  0  0  0  0  0  0  0  0
   11.6270    1.5580  -11.4020 C   0  0  0  0  0  0  0  0  0  0  0  0
   10.9230    1.0860  -10.1950 C   0  0  2  0  0  0  0  0  0  0  0  0
   10.8840    2.1030   -8.6620 S   0  0  0  0  0  0  0  0  0  0  0  0
   10.2990    0.6200   -7.7600 C   0  0  0  0  0  0  0  0  0  0  0  0
   11.1420   -0.5430   -8.2740 C   0  0  2  0  0  0  0  0  0  0  0  0
   12.4430   -0.6310   -7.6130 N   0  0  0  0  0  0  0  0  0  0  0  0
   13.4670   -0.4430   -8.4530 C   0  0  0  0  0  0  0  0  0  0  0  0
   14.6920   -0.4460   -8.2050 O   0  0  0  0  0  0  0  0  0  0  0  0
   12.9740   -0.2370   -9.6950 N   0  0  0  0  0  0  0  0  0  0  0  0
   11.5130   -0.2650   -9.7270 C   0  0  2  0  0  0  0  0  0  0  0  0
  1  2  1  1
  3  1  1  0
  4  1  1  0
  5  4  1  0
  6  5  1  0
  7  6  1  0
  8  7  1  6
  9  8  1  0
 10  9  1  0
 11 10  1  1
 12 11  1  0
 13 12  1  0
 14 13  1  0
 15 13  1  0
 16 15  1  1
 16 11  1  0
 16  8  1  0
M  END
$$$$
