
     RDKit          3D

 28 29  0  0  0  0  0  0  0  0999 V2000
   18.8570   61.9520   33.8020 C   0  0  0  0  0  0  0  0  0  0  0  0
   20.3760   61.7720   33.9190 C   0  0  1  0  0  0  0  0  0  0  0  0
   21.1050   62.3480   32.7040 C   0  0  2  0  0  0  0  0  0  0  0  0
   20.4790   61.8780   31.3820 C   0  0  1  0  0  0  0  0  0  0  0  0
   18.9590   62.1060   31.4180 C   0  0  1  0  0  0  0  0  0  0  0  0
   18.2390   61.5930   30.1780 C   0  0  0  0  0  0  0  0  0  0  0  0
   21.2500   61.7360   36.1670 C   0  0  0  0  0  0  0  0  0  0  0  0
   21.8490   62.5090   37.3310 C   0  0  0  0  0  0  0  0  0  0  0  0
   20.8520   62.4420   35.1140 N   0  0  0  0  0  0  0  0  0  0  0  0
   22.4710   61.9570   32.7480 O   0  0  0  0  0  0  0  0  0  0  0  0
   21.0610   62.6320   30.2970 O   0  0  0  0  0  0  0  0  0  0  0  0
   18.3860   61.4290   32.5560 O   0  0  0  0  0  0  0  0  0  0  0  0
   17.7700   60.2620   30.3510 O   0  0  0  0  0  0  0  0  0  0  0  0
   21.1490   60.5100   36.2270 O   0  0  0  0  0  0  0  0  0  0  0  0
   20.9720   62.0970   29.0210 C   0  0  2  0  0  0  0  0  0  0  0  0
   22.2130   61.2470   28.7060 C   0  0  1  0  0  0  0  0  0  0  0  0
   22.7060   61.5050   27.2730 C   0  0  2  0  0  0  0  0  0  0  0  0
   21.5220   61.6350   26.3050 C   0  0  1  0  0  0  0  0  0  0  0  0
   20.5660   62.7590   26.7470 C   0  0  1  0  0  0  0  0  0  0  0  0
   19.1030   62.3500   26.7130 C   0  0  0  0  0  0  0  0  0  0  0  0
   24.3200   60.7210   29.7450 C   0  0  0  0  0  0  0  0  0  0  0  0
   25.7000   61.3580   29.7140 C   0  0  0  0  0  0  0  0  0  0  0  0
   23.2710   61.5330   29.6550 N   0  0  0  0  0  0  0  0  0  0  0  0
   23.5490   60.4390   26.8540 O   0  0  0  0  0  0  0  0  0  0  0  0
   22.0030   61.9100   24.9950 O   0  0  0  0  0  0  0  0  0  0  0  0
   20.8630   63.1900   28.0970 O   0  0  0  0  0  0  0  0  0  0  0  0
   18.2570   63.4630   26.9570 O   0  0  0  0  0  0  0  0  0  0  0  0
   24.2100   59.4970   29.8400 O   0  0  0  0  0  0  0  0  0  0  0  0
  2  1  1  0
  3  2  1  0
  4  3  1  0
  5  4  1  0
  5  6  1  6
  8  7  1  0
  9  7  1  0
  2  9  1  1
  3 10  1  6
  4 11  1  6
 12  5  1  0
 12  1  1  0
 13  6  1  0
 14  7  1  0
 15 11  1  1
 16 15  1  0
 17 16  1  0
 18 17  1  0
 19 18  1  0
 19 20  1  1
 22 21  1  0
 23 21  1  0
 16 23  1  1
 17 24  1  6
 18 25  1  6
 26 19  1  0
 26 15  1  0
 27 20  1  0
 28 21  1  0
M  END
$$$$
