
     RDKit          3D

 21 24  0  0  0  0  0  0  0  0999 V2000
    7.5600   70.9960   69.9590 Cl  0  0  0  0  0  0  0  0  0  0  0  0
    6.3780   70.6350   68.8450 C   0  0  0  0  0  0  0  0  0  0  0  0
    5.9600   69.5810   65.3090 N   0  0  0  0  0  0  0  0  0  0  0  0
    5.5690   69.9500   66.6660 C   0  0  0  0  0  0  0  0  0  0  0  0
    4.9750   69.1980   64.4700 C   0  0  0  0  0  0  0  0  0  0  0  0
    1.8860   69.4300   66.4690 N   0  0  0  0  0  0  0  0  0  0  0  0
    3.2280   69.5120   66.1460 C   0  0  0  0  0  0  0  0  0  0  0  0
    6.6700   70.2770   67.4340 C   0  0  0  0  0  0  0  0  0  0  0  0
    4.9340   70.6300   69.2740 C   0  0  0  0  0  0  0  0  0  0  0  0
    4.2480   69.9120   67.0430 C   0  0  0  0  0  0  0  0  0  0  0  0
    5.5190   68.7840   62.9970 C   0  0  0  0  0  0  0  0  0  0  0  0
    3.6230   69.1100   64.7520 C   0  0  0  0  0  0  0  0  0  0  0  0
    4.5270   67.8800   62.2460 C   0  0  1  0  0  0  0  0  0  0  0  0
    4.2820   66.4050   62.9960 C   0  0  0  0  0  0  0  0  0  0  0  0
    3.1710   68.5550   62.2170 C   0  0  0  0  0  0  0  0  0  0  0  0
    3.3050   66.0890   63.8490 C   0  0  0  0  0  0  0  0  0  0  0  0
    2.3030   67.1800   64.1500 C   0  0  0  0  0  0  0  0  0  0  0  0
    3.2790   64.6360   64.4660 C   0  0  0  0  0  0  0  0  0  0  0  0
    2.6210   68.6020   63.7090 C   0  0  1  0  0  0  0  0  0  0  0  0
    4.3940   63.6190   64.1310 C   0  0  0  0  0  0  0  0  0  0  0  0
    3.9130   70.3030   68.4610 C   0  0  0  0  0  0  0  0  0  0  0  0
  2  1  1  0
  4  3  1  0
  5  3  1  0
  7  6  1  0
  8  4  1  0
  8  2  1  0
  9  2  1  0
 10  7  1  0
 10  4  1  0
 11  5  1  0
 12  5  1  0
 12  7  1  0
 13 11  1  1
 14 13  1  0
 15 13  1  0
 16 14  1  0
 17 16  1  0
 18 16  1  0
 19 17  1  1
 19 15  1  0
 19 12  1  0
 20 18  1  0
 21 10  1  0
 21  9  1  0
M  END
$$$$
