
     RDKit          3D

 41 41  0  0  0  0  0  0  0  0999 V2000
   -5.7410   17.9380   -7.0390 N   0  0  0  0  0  0  0  0  0  0  0  0
   -5.8830   17.4740   -5.6800 C   0  0  2  0  0  0  0  0  0  0  0  0
   -7.2840   17.7850   -5.1510 C   0  0  2  0  0  0  0  0  0  0  0  0
   -7.8780   18.7950   -5.5030 O   0  0  0  0  0  0  0  0  0  0  0  0
   -4.8320   18.1790   -4.8280 C   0  0  0  0  0  0  0  0  0  0  0  0
   -7.7640   16.9320   -4.2320 N   0  0  0  0  0  0  0  0  0  0  0  0
   -9.0680   17.1150   -3.5730 C   0  0  2  0  0  0  0  0  0  0  0  0
   -8.8180   16.8680   -2.0810 C   0  0  0  0  0  0  0  0  0  0  0  0
   -8.4350   15.7610   -1.7290 O   0  0  0  0  0  0  0  0  0  0  0  0
  -10.0880   16.1150   -4.1410 C   0  0  0  0  0  0  0  0  0  0  0  0
  -11.3700   15.7810    3.2710 C   0  0  1  0  0  0  0  0  0  0  0  0
  -10.7800   14.7100    3.1960 O   0  0  0  0  0  0  0  0  0  0  0  0
  -11.8840   16.4140    1.9720 C   0  0  0  0  0  0  0  0  0  0  0  0
  -10.7740   16.6120    0.9150 C   0  0  0  0  0  0  0  0  0  0  0  0
   -9.9260   17.8710    1.1670 C   0  0  2  0  0  0  0  0  0  0  0  0
  -10.8640   19.0150    1.0930 O   0  0  0  0  0  0  0  0  0  0  0  0
   -8.6630   17.8220    0.2180 C   0  0  1  0  0  0  0  0  0  0  0  0
   -8.9820   17.9020   -1.2370 N   0  0  0  0  0  0  0  0  0  0  0  0
   -7.6860   18.9390    0.6230 C   0  0  0  0  0  0  0  0  0  0  0  0
   -6.3150   18.8260   -0.0240 C   0  0  0  0  0  0  0  0  0  0  0  0
   -5.9580   19.6050   -1.1370 C   0  0  0  0  0  0  0  0  0  0  0  0
   -5.3680   17.9530    0.5460 C   0  0  0  0  0  0  0  0  0  0  0  0
   -4.6690   19.4940   -1.6820 C   0  0  0  0  0  0  0  0  0  0  0  0
   -4.0860   17.8370   -0.0040 C   0  0  0  0  0  0  0  0  0  0  0  0
   -3.7290   18.6210   -1.1100 C   0  0  0  0  0  0  0  0  0  0  0  0
  -11.6290   16.3670    4.4580 N   0  0  0  0  0  0  0  0  0  0  0  0
  -11.2800   15.6530    5.7110 C   0  0  2  0  0  0  0  0  0  0  0  0
  -12.5960   15.1310    6.3280 C   0  0  0  0  0  0  0  0  0  0  0  0
  -13.5770   15.8440    6.4930 O   0  0  0  0  0  0  0  0  0  0  0  0
  -10.4320   16.5190    6.6690 C   0  0  1  0  0  0  0  0  0  0  0  0
   -9.9680   15.7260    7.9080 C   0  0  0  0  0  0  0  0  0  0  0  0
   -9.1670   17.0370    5.9540 C   0  0  0  0  0  0  0  0  0  0  0  0
  -12.5390   13.8420    6.6570 N   0  0  0  0  0  0  0  0  0  0  0  0
  -13.5190   12.9170    7.2560 C   0  0  2  0  0  0  0  0  0  0  0  0
  -12.8290   12.0770    8.4190 C   0  0  1  0  0  0  0  0  0  0  0  0
  -11.5110   11.4360    8.2750 O   0  0  0  0  0  0  0  0  0  0  0  0
  -14.1680   12.0520    6.1210 C   0  0  1  0  0  0  0  0  0  0  0  0
  -15.2790   11.0900    6.6380 C   0  0  0  0  0  0  0  0  0  0  0  0
  -14.8520   12.9270    5.0450 C   0  0  0  0  0  0  0  0  0  0  0  0
  -13.0560   11.6970   10.7740 C   0  0  0  0  0  0  0  0  0  0  0  0
  -13.0000   12.6640    9.7100 O   0  0  0  0  0  0  0  0  0  0  0  0
  2  1  1  0
  3  2  1  0
  3  4  1  1
  2  5  1  1
  6  3  1  0
  7  6  1  0
  8  7  1  0
  9  8  1  0
  7 10  1  6
 11 12  1  1
 13 11  1  0
 14 13  1  0
 15 14  1  0
 15 16  1  6
 17 15  1  0
 18 17  1  0
 18  8  1  0
 17 19  1  1
 20 19  1  0
 21 20  1  0
 22 20  1  0
 23 21  1  0
 24 22  1  0
 25 24  1  0
 25 23  1  0
 26 11  1  0
 27 26  1  6
 28 27  1  0
 29 28  1  0
 30 27  1  0
 30 31  1  1
 32 30  1  0
 33 28  1  0
 34 33  1  6
 35 34  1  0
 35 36  1  6
 37 34  1  0
 37 38  1  1
 39 37  1  0
 41 40  1  0
 41 35  1  0
M  END
$$$$
