
     RDKit          3D

 22 23  0  0  0  0  0  0  0  0999 V2000
   37.2970   16.5300   16.4670 Cl  0  0  0  0  0  0  0  0  0  0  0  0
   35.7010   11.6500   16.1060 N   0  0  0  0  0  0  0  0  0  0  0  0
   35.1830   10.5030   16.5910 C   0  0  0  0  0  0  0  0  0  0  0  0
   34.8220   10.3740   17.9260 C   0  0  0  0  0  0  0  0  0  0  0  0
   35.0150   11.4690   18.8760 C   0  0  0  0  0  0  0  0  0  0  0  0
   35.5920   12.7270   18.3580 C   0  0  0  0  0  0  0  0  0  0  0  0
   35.8420   13.9310   19.1500 C   0  0  0  0  0  0  0  0  0  0  0  0
   36.3770   15.0900   18.5720 C   0  0  0  0  0  0  0  0  0  0  0  0
   36.6750   15.0930   17.1700 C   0  0  0  0  0  0  0  0  0  0  0  0
   36.4550   13.9680   16.3590 C   0  0  0  0  0  0  0  0  0  0  0  0
   35.9160   12.7830   16.9300 C   0  0  0  0  0  0  0  0  0  0  0  0
   34.6720   11.3700   20.1980 N   0  0  0  0  0  0  0  0  0  0  0  0
   34.2140   10.1460   20.9380 C   0  0  1  0  0  0  0  0  0  0  0  0
   35.3120    9.0730   20.8840 C   0  0  0  0  0  0  0  0  0  0  0  0
   36.6190    9.3990   21.5830 C   0  0  0  0  0  0  0  0  0  0  0  0
   37.7060    8.4520   21.0990 C   0  0  0  0  0  0  0  0  0  0  0  0
   37.4150    7.0040   21.3790 N   0  0  0  0  0  0  0  0  0  0  0  0
   38.2660    6.0490   20.5130 C   0  0  0  0  0  0  0  0  0  0  0  0
   38.0790    4.5480   20.7070 C   0  0  0  0  0  0  0  0  0  0  0  0
   37.3140    6.6910   22.8460 C   0  0  0  0  0  0  0  0  0  0  0  0
   38.6200    6.5420   23.5540 C   0  0  0  0  0  0  0  0  0  0  0  0
   33.8020   10.5100   22.3570 C   0  0  0  0  0  0  0  0  0  0  0  0
  3  2  1  0
  4  3  1  0
  5  4  1  0
  6  5  1  0
  7  6  1  0
  8  7  1  0
  9  8  1  0
  9  1  1  0
 10  9  1  0
 11  2  1  0
 11 10  1  0
 11  6  1  0
 12  5  1  0
 13 12  1  0
 14 13  1  0
 15 14  1  0
 16 15  1  0
 17 16  1  0
 18 17  1  0
 19 18  1  0
 20 17  1  0
 21 20  1  0
 13 22  1  1
M  END
$$$$
