
     RDKit          3D

 42 42  0  0  0  0  0  0  0  0999 V2000
   45.5100   23.0020   66.2580 C   0  0  0  0  0  0  0  0  0  0  0  0
   44.7100   22.2760   65.6330 C   0  0  0  0  0  0  0  0  0  0  0  0
   44.3590   19.9760   64.7470 C   0  0  1  0  0  0  0  0  0  0  0  0
   45.3320   19.2840   63.8240 C   0  0  0  0  0  0  0  0  0  0  0  0
   45.9590   19.9850   62.6470 C   0  0  1  0  0  0  0  0  0  0  0  0
   45.1630   21.1900   62.1830 C   0  0  0  0  0  0  0  0  0  0  0  0
   45.7320   21.7660   60.9070 C   0  0  0  0  0  0  0  0  0  0  0  0
   47.2140   22.1150   61.0830 C   0  0  0  0  0  0  0  0  0  0  0  0
   48.0570   20.9850   61.7110 C   0  0  0  0  0  0  0  0  0  0  0  0
   47.3850   20.4040   62.9280 C   0  0  0  0  0  0  0  0  0  0  0  0
   43.6380   18.8840   65.6080 C   0  0  2  0  0  0  0  0  0  0  0  0
   42.7960   19.5050   66.7060 C   0  0  0  0  0  0  0  0  0  0  0  0
   41.4600   18.8010   66.8660 C   0  0  1  0  0  0  0  0  0  0  0  0
   40.5360   19.6130   67.8360 C   0  0  1  0  0  0  0  0  0  0  0  0
   39.9940   20.8780   67.1990 C   0  0  0  0  0  0  0  0  0  0  0  0
   39.4250   18.7550   68.3890 C   0  0  0  0  0  0  0  0  0  0  0  0
   40.8390   18.5800   65.4800 C   0  0  0  0  0  0  0  0  0  0  0  0
   39.3800   17.1150   64.2650 C   0  0  1  0  0  0  0  0  0  0  0  0
   39.9620   16.7890   62.8680 C   0  0  0  0  0  0  0  0  0  0  0  0
   40.0380   15.3260   62.4810 C   0  0  0  0  0  0  0  0  0  0  0  0
   38.7290   14.7960   61.9710 C   0  0  0  0  0  0  0  0  0  0  0  0
   38.3970   16.0710   64.7570 C   0  0  0  0  0  0  0  0  0  0  0  0
   36.0780   15.3880   64.7620 C   0  0  2  0  0  0  0  0  0  0  0  0
   35.1670   15.2450   63.5670 C   0  0  0  0  0  0  0  0  0  0  0  0
   35.3380   16.0590   65.9140 C   0  0  0  0  0  0  0  0  0  0  0  0
   35.9920   15.8580   67.2590 C   0  0  0  0  0  0  0  0  0  0  0  0
   35.9500   17.1280   68.0770 C   0  0  0  0  0  0  0  0  0  0  0  0
   34.3030   17.2140   69.9120 C   0  0  0  0  0  0  0  0  0  0  0  0
   45.0620   20.9790   65.5660 N   0  0  0  0  0  0  0  0  0  0  0  0
   40.4350   17.3410   65.2340 N   0  0  0  0  0  0  0  0  0  0  0  0
   38.1560   15.4730   60.9940 N   0  0  0  0  0  0  0  0  0  0  0  0
   37.1640   16.2210   64.3060 N   0  0  0  0  0  0  0  0  0  0  0  0
   34.6060   14.0510   63.5010 N   0  0  0  0  0  0  0  0  0  0  0  0
   35.5030   16.8760   69.4420 N   0  0  0  0  0  0  0  0  0  0  0  0
   33.5530   18.1050   69.2620 N   0  0  0  0  0  0  0  0  0  0  0  0
   33.8540   16.6660   71.0360 N   0  0  0  0  0  0  0  0  0  0  0  0
   43.6700   22.7450   65.1250 O   0  0  0  0  0  0  0  0  0  0  0  0
   44.5850   18.0080   66.1960 O   0  0  0  0  0  0  0  0  0  0  0  0
   40.7610   19.4940   64.6310 O   0  0  0  0  0  0  0  0  0  0  0  0
   38.2180   13.8060   62.4730 O   0  0  0  0  0  0  0  0  0  0  0  0
   38.7320   15.1970   65.5570 O   0  0  0  0  0  0  0  0  0  0  0  0
   34.9930   16.1380   62.7260 O   0  0  0  0  0  0  0  0  0  0  0  0
  2  1  1  0
  3  4  1  6
  5  4  1  1
  6  5  1  0
  7  6  1  0
  8  7  1  0
  9  8  1  0
 10  9  1  0
 10  5  1  0
 11  3  1  0
 12 11  1  0
 13 12  1  6
 14 13  1  0
 14 15  1  6
 16 14  1  0
 17 13  1  0
 18 19  1  6
 20 19  1  0
 21 20  1  0
 22 18  1  0
 24 23  1  0
 23 25  1  1
 26 25  1  0
 27 26  1  0
 29  3  1  0
 29  2  1  0
 30 18  1  0
 30 17  1  0
 31 21  1  0
 32 23  1  0
 32 22  1  0
 33 24  1  0
 34 28  1  0
 34 27  1  0
 35 28  1  0
 36 28  1  0
 37  2  1  0
 11 38  1  1
 39 17  1  0
 40 21  1  0
 41 22  1  0
 42 24  1  0
M  END
$$$$
