
     RDKit          3D

 42 45  0  0  0  0  0  0  0  0999 V2000
   17.7350  -17.1780   22.6120 C   0  0  1  0  0  0  0  0  0  0  0  0
   18.5430  -17.3500   21.4620 C   0  0  0  0  0  0  0  0  0  0  0  0
   19.8770  -17.0460   21.5580 C   0  0  0  0  0  0  0  0  0  0  0  0
   20.4010  -16.5660   22.7660 C   0  0  0  0  0  0  0  0  0  0  0  0
   19.6130  -16.3580   23.8930 C   0  0  1  0  0  0  0  0  0  0  0  0
   20.0840  -15.7910   25.0460 C   0  0  2  0  0  0  0  0  0  0  0  0
   19.2410  -15.5680   26.1140 C   0  0  0  0  0  0  0  0  0  0  0  0
   17.8930  -15.9710   26.0280 C   0  0  0  0  0  0  0  0  0  0  0  0
   17.3700  -16.5100   24.8790 C   0  0  0  0  0  0  0  0  0  0  0  0
   18.2050  -16.6890   23.8090 C   0  0  0  0  0  0  0  0  0  0  0  0
   21.3830  -15.2850   25.1040 N   0  0  0  0  0  0  0  0  0  0  0  0
   21.8980  -14.2170   24.2140 C   0  0  0  0  0  0  0  0  0  0  0  0
   22.6350  -16.2130   25.4960 C   0  0  0  0  0  0  0  0  0  0  0  0
   15.9090  -17.5810   22.4170 S   0  0  1  0  0  0  0  0  0  0  0  0
   15.9880  -18.0130   21.0100 O   0  0  0  0  0  0  0  0  0  0  0  0
   14.9980  -18.1910   23.4020 O   0  0  0  0  0  0  0  0  0  0  0  0
   14.8930  -15.9700   22.4850 N   0  0  0  0  0  0  0  0  0  0  0  0
   15.1930  -15.1140   21.2960 C   0  0  2  0  0  0  0  0  0  0  0  0
   16.3070  -14.1670   21.7520 C   0  0  2  0  0  0  0  0  0  0  0  0
   16.2120  -13.7810   22.9140 O   0  0  0  0  0  0  0  0  0  0  0  0
   13.9420  -14.3540   20.8790 C   0  0  0  0  0  0  0  0  0  0  0  0
   13.2320  -13.6860   22.0580 C   0  0  0  0  0  0  0  0  0  0  0  0
   11.8920  -13.1330   21.5950 C   0  0  0  0  0  0  0  0  0  0  0  0
   11.2180  -12.6470   22.7800 N   0  0  0  0  0  0  0  0  0  0  0  0
   11.4570  -11.5540   23.4830 C   0  0  1  0  0  0  0  0  0  0  0  0
   12.3590  -10.6740   23.0450 N   0  0  0  0  0  0  0  0  0  0  0  0
   10.7230  -11.3360   24.5660 N   0  0  0  0  0  0  0  0  0  0  0  0
   17.2800  -13.6920   20.8300 N   0  0  0  0  0  0  0  0  0  0  0  0
   17.0430  -14.0330   19.3270 C   0  0  2  0  0  0  0  0  0  0  0  0
   18.4210  -14.4720   18.8090 C   0  0  0  0  0  0  0  0  0  0  0  0
   19.6100  -13.4170   19.1940 C   0  0  0  0  0  0  0  0  0  0  0  0
   19.6960  -13.0830   20.7650 C   0  0  0  0  0  0  0  0  0  0  0  0
   18.3510  -12.6800   21.3100 C   0  0  0  0  0  0  0  0  0  0  0  0
   16.5930  -13.0140   18.5500 C   0  0  0  0  0  0  0  0  0  0  0  0
   15.9410  -13.4250   17.1790 C   0  0  0  0  0  0  0  0  0  0  0  0
   15.7830  -14.9040   14.4580 S   0  0  0  0  0  0  0  0  0  0  0  0
   17.4880  -11.9220   16.2870 O   0  0  0  0  0  0  0  0  0  0  0  0
   17.0590  -15.5830   13.5080 C   0  0  0  0  0  0  0  0  0  0  0  0
   16.8640  -13.5560   14.7390 C   0  0  1  0  0  0  0  0  0  0  0  0
   16.8250  -12.9030   16.1070 C   0  0  2  0  0  0  0  0  0  0  0  0
   18.1460  -14.7340   13.4510 C   0  0  0  0  0  0  0  0  0  0  0  0
   18.0490  -13.5540   14.1060 N   0  0  0  0  0  0  0  0  0  0  0  0
  1  2  1  6
  3  2  1  0
  4  3  1  0
  5  4  1  6
  6  5  1  0
  7  6  1  0
  8  7  1  0
  9  8  1  0
 10  9  1  0
 10  5  1  0
 10  1  1  0
  6 11  1  6
 12 11  1  0
 13 11  1  0
 14  1  1  0
 14 15  1  6
 16 14  1  0
 17 14  1  0
 18 17  1  0
 19 18  1  0
 19 20  1  6
 18 21  1  1
 22 21  1  0
 23 22  1  0
 24 23  1  0
 25 24  1  0
 25 26  1  6
 27 25  1  0
 28 19  1  0
 29 28  1  0
 30 29  1  0
 31 30  1  0
 32 31  1  0
 33 32  1  0
 33 28  1  0
 29 34  1  6
 35 34  1  0
 38 36  1  0
 39 36  1  0
 40 35  1  0
 40 39  1  0
 40 37  1  6
 41 38  1  0
 42 41  1  0
 39 42  1  1
M  END
$$$$
