
     RDKit          3D

 37 38  0  0  0  0  0  0  0  0999 V2000
   41.1490   23.3540   37.6440 C   0  0  0  0  0  0  0  0  0  0  0  0
   41.3470   24.6160   38.5620 C   0  0  1  0  0  0  0  0  0  0  0  0
   40.7380   23.4660   36.4830 O   0  0  0  0  0  0  0  0  0  0  0  0
   41.8710   24.3920   39.7540 F   0  0  0  0  0  0  0  0  0  0  0  0
   42.1300   25.5370   38.0580 F   0  0  0  0  0  0  0  0  0  0  0  0
   40.2100   25.2310   38.7870 F   0  0  0  0  0  0  0  0  0  0  0  0
   41.4280   22.1360   38.1490 N   0  0  0  0  0  0  0  0  0  0  0  0
   40.8000   20.9190   37.7020 C   0  0  2  0  0  0  0  0  0  0  0  0
   39.3070   21.0480   37.4350 C   0  0  1  0  0  0  0  0  0  0  0  0
   38.5140   21.5650   38.2110 O   0  0  0  0  0  0  0  0  0  0  0  0
   41.1000   19.8690   38.7470 C   0  0  0  0  0  0  0  0  0  0  0  0
   41.2800   18.4430   38.2880 C   0  0  1  0  0  0  0  0  0  0  0  0
   42.2250   18.3330   37.0870 C   0  0  0  0  0  0  0  0  0  0  0  0
   41.8110   17.6760   39.4790 C   0  0  0  0  0  0  0  0  0  0  0  0
   37.7730   20.6860   35.4060 N   0  0  1  0  0  0  0  0  0  0  0  0
   39.1210   20.5680   36.1900 N   0  0  0  0  0  0  0  0  0  0  0  0
   37.7120   22.1170   34.9400 C   0  0  0  0  0  0  0  0  0  0  0  0
   36.5220   22.5540   34.0800 C   0  0  1  0  0  0  0  0  0  0  0  0
   35.7530   23.6410   34.4900 C   0  0  0  0  0  0  0  0  0  0  0  0
   34.7240   24.0770   33.6770 C   0  0  0  0  0  0  0  0  0  0  0  0
   34.4260   23.4610   32.4590 C   0  0  0  0  0  0  0  0  0  0  0  0
   35.1790   22.3730   32.0390 C   0  0  0  0  0  0  0  0  0  0  0  0
   36.2250   21.9230   32.8500 C   0  0  0  0  0  0  0  0  0  0  0  0
   38.1600   19.7130   34.3160 C   0  0  0  0  0  0  0  0  0  0  0  0
   36.5310   20.2380   36.1060 C   0  0  0  0  0  0  0  0  0  0  0  0
   36.5440   18.8920   36.8120 C   0  0  0  0  0  0  0  0  0  0  0  0
   36.6680   17.7920   36.2510 O   0  0  0  0  0  0  0  0  0  0  0  0
   36.1950   18.3510   39.0700 C   0  0  0  0  0  0  0  0  0  0  0  0
   36.4320   19.2410   38.1030 N   0  0  0  0  0  0  0  0  0  0  0  0
   36.8200   17.0940   39.1380 C   0  0  0  0  0  0  0  0  0  0  0  0
   36.5290   16.2290   40.2070 C   0  0  0  0  0  0  0  0  0  0  0  0
   35.6130   16.6130   41.2160 C   0  0  0  0  0  0  0  0  0  0  0  0
   35.0070   17.8720   41.1250 C   0  0  0  0  0  0  0  0  0  0  0  0
   35.2900   18.7230   40.0590 C   0  0  0  0  0  0  0  0  0  0  0  0
   35.2730   15.6970   42.4140 C   0  0  2  0  0  0  0  0  0  0  0  0
   35.7420   14.2420   42.2510 C   0  0  0  0  0  0  0  0  0  0  0  0
   33.7770   15.6910   42.5010 C   0  0  0  0  0  0  0  0  0  0  0  0
  2  1  1  0
  3  1  1  0
  2  4  1  1
  5  2  1  0
  6  2  1  0
  7  1  1  0
  8  7  1  0
  9  8  1  0
  9 10  1  6
  8 11  1  1
 12 11  1  0
 12 13  1  6
 14 12  1  0
 16 15  1  0
 16  9  1  0
 17 15  1  0
 18 17  1  6
 19 18  1  0
 20 19  1  0
 21 20  1  0
 22 21  1  0
 23 22  1  0
 23 18  1  0
 15 24  1  6
 25 15  1  0
 26 25  1  0
 27 26  1  0
 29 26  1  0
 29 28  1  0
 30 28  1  0
 31 30  1  0
 32 31  1  0
 33 32  1  0
 34 33  1  0
 34 28  1  0
 35 32  1  0
 35 36  1  6
 37 35  1  0
M  CHG  1  15   1
M  END
$$$$
