
     RDKit          3D

  6  5  0  0  0  0  0  0  0  0999 V2000
  185.9370    8.2100   65.8030 N   0  0  0  0  0  0  0  0  0  0  0  0
  185.0470    7.2500   65.0860 C   0  0  0  0  0  0  0  0  0  0  0  0
  184.0970    7.9880   64.1260 C   0  0  0  0  0  0  0  0  0  0  0  0
  183.4900    7.0810   63.0700 C   0  0  0  0  0  0  0  0  0  0  0  0
  182.5140    7.8100   62.1680 C   0  0  0  0  0  0  0  0  0  0  0  0
  182.2700    7.0450   60.9210 N   0  0  0  0  0  0  0  0  0  0  0  0
  2  1  1  0
  3  2  1  0
  4  3  1  0
  5  4  1  0
  6  5  1  0
M  END
$$$$
